LIG
  -OEChem-09082123563D

 46 49  0     0  0  0  0  0  0999 V2000
   14.1460  158.8920   36.9950 O   0  0  0  0  0  0  0  0  0  0  0  0
   13.1110  158.9860   37.6350 C   0  0  0  0  0  0  0  0  0  0  0  0
   12.4620  160.2570   37.7450 N   0  0  0  0  0  0  0  0  0  0  0  0
   13.0120  161.4260   37.0760 C   0  0  0  0  0  0  0  0  0  0  0  0
   12.5590  157.7730   38.3130 C   0  0  0  0  0  0  0  0  0  0  0  0
   12.2660  157.8050   39.6760 C   0  0  0  0  0  0  0  0  0  0  0  0
   11.7670  156.6730   40.3080 C   0  0  0  0  0  0  0  0  0  0  0  0
   11.5580  155.5010   39.5740 C   0  0  0  0  0  0  0  0  0  0  0  0
   12.3520  156.5920   37.5790 C   0  0  0  0  0  0  0  0  0  0  0  0
   11.8560  155.4710   38.2080 C   0  0  0  0  0  0  0  0  0  0  0  0
   12.7010  156.5180   35.8190 S   0  0  0  0  0  0  0  0  0  0  0  0
   11.4490  155.4060   35.1740 C   0  0  0  0  0  0  0  0  0  0  0  0
   10.0940  155.6050   35.5100 C   0  0  0  0  0  0  0  0  0  0  0  0
    9.1060  154.7310   35.0210 C   0  0  0  0  0  0  0  0  0  0  0  0
   11.8290  154.3550   34.3550 C   0  0  0  0  0  0  0  0  0  0  0  0
   10.8200  153.4660   33.8530 C   0  0  0  0  0  0  0  0  0  0  0  0
   10.9130  152.3630   33.0240 N   0  0  0  0  0  0  0  0  0  0  0  0
    9.6460  151.8660   32.8370 N   0  0  0  0  0  0  0  0  0  0  0  0
    8.7500  152.6100   33.5180 C   0  0  0  0  0  0  0  0  0  0  0  0
    9.4900  153.6500   34.1780 C   0  0  0  0  0  0  0  0  0  0  0  0
    7.2670  152.3500   33.5450 C   0  0  0  0  0  0  0  0  0  0  0  0
    6.3800  153.1480   34.2220 C   0  0  0  0  0  0  0  0  0  0  0  0
    4.9250  152.7650   34.2910 C   0  0  0  0  0  0  0  0  0  0  0  0
    4.4220  151.8900   33.3980 N   0  0  0  0  0  0  0  0  0  0  0  0
    3.1180  151.5270   33.4310 C   0  0  0  0  0  0  0  0  0  0  0  0
    2.2730  152.0660   34.3980 C   0  0  0  0  0  0  0  0  0  0  0  0
    2.7710  152.9720   35.3270 C   0  0  0  0  0  0  0  0  0  0  0  0
    4.1180  153.3270   35.2680 C   0  0  0  0  0  0  0  0  0  0  0  0
   11.6249  160.3420   38.2853 H   0  0  0  0  0  0  0  0  0  0  0  0
   12.3750  162.2993   37.2799 H   0  0  0  0  0  0  0  0  0  0  0  0
   14.0283  161.6182   37.4503 H   0  0  0  0  0  0  0  0  0  0  0  0
   13.0489  161.2443   35.9917 H   0  0  0  0  0  0  0  0  0  0  0  0
   12.4273  158.7111   40.2411 H   0  0  0  0  0  0  0  0  0  0  0  0
   11.5410  156.6979   41.3638 H   0  0  0  0  0  0  0  0  0  0  0  0
   11.1669  154.6202   40.0615 H   0  0  0  0  0  0  0  0  0  0  0  0
   11.6965  154.5644   37.6432 H   0  0  0  0  0  0  0  0  0  0  0  0
    9.8135  156.4319   36.1455 H   0  0  0  0  0  0  0  0  0  0  0  0
    8.0684  154.8784   35.2820 H   0  0  0  0  0  0  0  0  0  0  0  0
   12.8676  154.2070   34.0985 H   0  0  0  0  0  0  0  0  0  0  0  0
   11.7542  151.9924   32.6301 H   0  0  0  0  0  0  0  0  0  0  0  0
    6.8840  151.4958   33.0065 H   0  0  0  0  0  0  0  0  0  0  0  0
    6.7248  154.0502   34.7052 H   0  0  0  0  0  0  0  0  0  0  0  0
    2.7341  150.8212   32.7093 H   0  0  0  0  0  0  0  0  0  0  0  0
    1.2319  151.7803   34.4260 H   0  0  0  0  0  0  0  0  0  0  0  0
    2.1249  153.3942   36.0824 H   0  0  0  0  0  0  0  0  0  0  0  0
    4.5282  154.0321   35.9758 H   0  0  0  0  0  0  0  0  0  0  0  0
  1  2  2  0  0  0  0
  2  3  1  0  0  0  0
  2  5  1  0  0  0  0
  3  4  1  0  0  0  0
  3 29  1  0  0  0  0
  4 30  1  0  0  0  0
  4 31  1  0  0  0  0
  4 32  1  0  0  0  0
  5  6  2  0  0  0  0
  5  9  1  0  0  0  0
  6  7  1  0  0  0  0
  6 33  1  0  0  0  0
  7  8  2  0  0  0  0
  7 34  1  0  0  0  0
  8 10  1  0  0  0  0
  8 35  1  0  0  0  0
  9 10  2  0  0  0  0
  9 11  1  0  0  0  0
 10 36  1  0  0  0  0
 11 12  1  0  0  0  0
 12 13  2  0  0  0  0
 12 15  1  0  0  0  0
 13 14  1  0  0  0  0
 13 37  1  0  0  0  0
 14 20  2  0  0  0  0
 14 38  1  0  0  0  0
 15 16  2  0  0  0  0
 15 39  1  0  0  0  0
 16 17  1  0  0  0  0
 16 20  1  0  0  0  0
 17 18  1  0  0  0  0
 17 40  1  0  0  0  0
 18 19  2  0  0  0  0
 19 20  1  0  0  0  0
 19 21  1  0  0  0  0
 21 22  2  0  0  0  0
 21 41  1  0  0  0  0
 22 23  1  0  0  0  0
 22 42  1  0  0  0  0
 23 24  2  0  0  0  0
 23 28  1  0  0  0  0
 24 25  1  0  0  0  0
 25 26  2  0  0  0  0
 25 43  1  0  0  0  0
 26 27  1  0  0  0  0
 26 44  1  0  0  0  0
 27 28  2  0  0  0  0
 27 45  1  0  0  0  0
 28 46  1  0  0  0  0
M  END
> <bio:pdb:part:site>
1

> <bio:pdb:part:order>
1

> <bio:pdb:ligand>
true

$$$$
