LIG
  -OEChem-09082123473D

 60 63  0     0  0  0  0  0  0999 V2000
   45.0120   80.8680   38.7420 C   0  0  0  0  0  0  0  0  0  0  0  0
   43.9770   80.1180   38.2570 N   0  0  0  0  0  0  0  0  0  0  0  0
   47.7260   81.7050   42.0920 O   0  0  0  0  0  0  0  0  0  0  0  0
   45.8120   80.6770   40.2960 S   0  0  0  0  0  0  0  0  0  0  0  0
   47.3940   85.0560   43.5890 Cl  0  0  0  0  0  0  0  0  0  0  0  0
   46.6110   82.6200   38.8410 C   0  0  0  0  0  0  0  0  0  0  0  0
   45.5400   81.9390   38.1020 N   0  0  0  0  0  0  0  0  0  0  0  0
   37.4960   75.0150   34.2610 O   0  0  0  0  0  0  0  0  0  0  0  0
   46.7750   82.0670   40.0440 C   0  0  0  0  0  0  0  0  0  0  0  0
   48.3930   83.6260   41.1040 N   0  0  0  0  0  0  0  0  0  0  0  0
   47.6870   82.4940   41.1480 C   0  0  0  0  0  0  0  0  0  0  0  0
   42.0970   76.9050   39.9750 N   0  0  0  0  0  0  0  0  0  0  0  0
   49.3330   83.9150   42.0370 C   0  0  0  0  0  0  0  0  0  0  0  0
   43.7640   78.5580   40.0120 N   0  0  0  0  0  0  0  0  0  0  0  0
   49.0210   84.6530   43.2010 C   0  0  0  0  0  0  0  0  0  0  0  0
   40.4900   76.7170   38.1650 N   0  0  0  0  0  0  0  0  0  0  0  0
   50.0050   85.0710   44.1070 C   0  0  0  0  0  0  0  0  0  0  0  0
   39.1540   74.8480   36.4620 N   0  3  0  0  0  0  0  0  0  0  0  0
   51.3280   84.7110   43.8460 C   0  0  0  0  0  0  0  0  0  0  0  0
   51.6490   83.9220   42.7330 C   0  0  0  0  0  0  0  0  0  0  0  0
   50.6600   83.5350   41.8220 C   0  0  0  0  0  0  0  0  0  0  0  0
   51.0540   82.7460   40.6060 C   0  0  0  0  0  0  0  0  0  0  0  0
   43.3450   79.0450   38.8240 C   0  0  0  0  0  0  0  0  0  0  0  0
   42.2600   78.4660   38.1410 C   0  0  0  0  0  0  0  0  0  0  0  0
   41.6410   77.3640   38.7640 C   0  0  0  0  0  0  0  0  0  0  0  0
   43.1380   77.5250   40.5610 C   0  0  0  0  0  0  0  0  0  0  0  0
   43.6000   77.0970   41.9190 C   0  0  0  0  0  0  0  0  0  0  0  0
   39.8200   75.5660   38.8090 C   0  0  0  0  0  0  0  0  0  0  0  0
   39.6220   74.4100   37.7990 C   0  0  0  0  0  0  0  0  0  0  0  0
   39.9110   75.9790   35.8960 C   0  0  0  0  0  0  0  0  0  0  0  0
   39.9050   77.1490   36.8840 C   0  0  0  0  0  0  0  0  0  0  0  0
   39.2210   73.7370   35.5030 C   0  0  0  0  0  0  0  0  0  0  0  0
   38.3550   73.8890   34.2270 C   0  0  0  0  0  0  0  0  0  0  0  0
   43.8132   80.2239   37.2762 H   0  0  0  0  0  0  0  0  0  0  0  0
   47.1858   83.4526   38.4632 H   0  0  0  0  0  0  0  0  0  0  0  0
   36.9933   75.0548   33.4559 H   0  0  0  0  0  0  0  0  0  0  0  0
   48.2242   84.2772   40.3641 H   0  0  0  0  0  0  0  0  0  0  0  0
   49.7478   85.6532   44.9795 H   0  0  0  0  0  0  0  0  0  0  0  0
   38.1976   75.1274   36.5471 H   0  0  0  0  0  0  0  0  0  0  0  0
   52.1129   85.0440   44.5089 H   0  0  0  0  0  0  0  0  0  0  0  0
   52.6709   83.6093   42.5768 H   0  0  0  0  0  0  0  0  0  0  0  0
   51.5242   81.8018   40.9181 H   0  0  0  0  0  0  0  0  0  0  0  0
   50.1595   82.5286   40.0038 H   0  0  0  0  0  0  0  0  0  0  0  0
   51.7667   83.3300   40.0052 H   0  0  0  0  0  0  0  0  0  0  0  0
   41.9193   78.8461   37.1892 H   0  0  0  0  0  0  0  0  0  0  0  0
   42.9715   76.2677   42.2756 H   0  0  0  0  0  0  0  0  0  0  0  0
   44.6473   76.7653   41.8628 H   0  0  0  0  0  0  0  0  0  0  0  0
   43.5211   77.9437   42.6167 H   0  0  0  0  0  0  0  0  0  0  0  0
   40.4384   75.2111   39.6466 H   0  0  0  0  0  0  0  0  0  0  0  0
   38.8382   75.8860   39.1879 H   0  0  0  0  0  0  0  0  0  0  0  0
   38.8793   73.7124   38.2136 H   0  0  0  0  0  0  0  0  0  0  0  0
   40.5838   73.8907   37.6753 H   0  0  0  0  0  0  0  0  0  0  0  0
   40.9483   75.6662   35.7057 H   0  0  0  0  0  0  0  0  0  0  0  0
   39.4443   76.2954   34.9515 H   0  0  0  0  0  0  0  0  0  0  0  0
   38.8702   77.4839   37.0485 H   0  0  0  0  0  0  0  0  0  0  0  0
   40.4979   77.9790   36.4722 H   0  0  0  0  0  0  0  0  0  0  0  0
   40.2691   73.6273   35.1875 H   0  0  0  0  0  0  0  0  0  0  0  0
   38.8970   72.8234   36.0229 H   0  0  0  0  0  0  0  0  0  0  0  0
   39.0253   73.9878   33.3604 H   0  0  0  0  0  0  0  0  0  0  0  0
   37.7397   72.9843   34.1134 H   0  0  0  0  0  0  0  0  0  0  0  0
  1  2  1  0  0  0  0
  1  7  2  0  0  0  0
  1  4  1  0  0  0  0
  2 23  1  0  0  0  0
  2 34  1  0  0  0  0
  3 11  2  0  0  0  0
  4  9  1  0  0  0  0
  5 15  1  0  0  0  0
  6  9  2  0  0  0  0
  6  7  1  0  0  0  0
  6 35  1  0  0  0  0
  8 33  1  0  0  0  0
  8 36  1  0  0  0  0
  9 11  1  0  0  0  0
 10 11  1  0  0  0  0
 10 13  1  0  0  0  0
 10 37  1  0  0  0  0
 12 25  2  0  0  0  0
 12 26  1  0  0  0  0
 13 21  2  0  0  0  0
 13 15  1  0  0  0  0
 14 23  1  0  0  0  0
 14 26  2  0  0  0  0
 15 17  2  0  0  0  0
 16 28  1  0  0  0  0
 16 31  1  0  0  0  0
 16 25  1  0  0  0  0
 17 19  1  0  0  0  0
 17 38  1  0  0  0  0
 18 32  1  0  0  0  0
 18 29  1  0  0  0  0
 18 30  1  0  0  0  0
 18 39  1  0  0  0  0
 19 20  2  0  0  0  0
 19 40  1  0  0  0  0
 20 21  1  0  0  0  0
 20 41  1  0  0  0  0
 21 22  1  0  0  0  0
 22 42  1  0  0  0  0
 22 43  1  0  0  0  0
 22 44  1  0  0  0  0
 23 24  2  0  0  0  0
 24 25  1  0  0  0  0
 24 45  1  0  0  0  0
 26 27  1  0  0  0  0
 27 46  1  0  0  0  0
 27 47  1  0  0  0  0
 27 48  1  0  0  0  0
 28 29  1  0  0  0  0
 28 49  1  0  0  0  0
 28 50  1  0  0  0  0
 29 51  1  0  0  0  0
 29 52  1  0  0  0  0
 30 31  1  0  0  0  0
 30 53  1  0  0  0  0
 30 54  1  0  0  0  0
 31 55  1  0  0  0  0
 31 56  1  0  0  0  0
 32 33  1  0  0  0  0
 32 57  1  0  0  0  0
 32 58  1  0  0  0  0
 33 59  1  0  0  0  0
 33 60  1  0  0  0  0
M  CHG  1  18   1
M  END
> <bio:pdb:part:site>
1

> <bio:pdb:part:order>
1

> <bio:pdb:ligand>
true

$$$$
