LIG
  -OEChem-09092100003D

 56 59  0     0  0  0  0  0  0999 V2000
  -52.3769    1.0751  -26.3167 C   0  0  0  0  0  0  0  0  0  0  0  0
  -52.0787    1.2848  -27.6631 C   0  0  0  0  0  0  0  0  0  0  0  0
  -52.0882   -0.4725  -21.6800 C   0  0  0  0  0  0  0  0  0  0  0  0
  -53.6890    1.0007  -19.9527 C   0  0  0  0  0  0  0  0  0  0  0  0
  -52.2033   -1.3115  -26.6499 C   0  0  0  0  0  0  0  0  0  0  0  0
  -55.2671    1.6714  -23.1016 C   0  0  0  0  0  0  0  0  0  0  0  0
  -53.1798    0.2627  -22.1739 C   0  0  0  0  0  0  0  0  0  0  0  0
  -53.9966    1.0114  -21.3110 C   0  0  0  0  0  0  0  0  0  0  0  0
  -52.4392   -0.2230  -25.8101 C   0  0  0  0  0  0  0  0  0  0  0  0
  -51.8036   -0.4652  -20.3180 C   0  0  0  0  0  0  0  0  0  0  0  0
  -52.6052    0.2722  -19.4537 C   0  0  0  0  0  0  0  0  0  0  0  0
  -51.8428    0.1964  -28.5029 C   0  0  0  0  0  0  0  0  0  0  0  0
  -51.9051   -1.1018  -27.9963 C   0  0  0  0  0  0  0  0  0  0  0  0
  -53.5183    0.2980  -23.5237 C   0  0  0  0  0  0  0  0  0  0  0  0
  -46.5815   -2.7890  -17.3599 C   0  0  0  0  0  0  0  0  0  0  0  0
  -47.5883   -4.9606  -18.0319 C   0  0  0  0  0  0  0  0  0  0  0  0
  -45.9833   -3.5098  -16.1637 C   0  0  0  0  0  0  0  0  0  0  0  0
  -46.9376   -5.5695  -16.8013 C   0  0  0  0  0  0  0  0  0  0  0  0
  -51.4681    1.3135  -17.6431 C   0  0  0  0  0  0  0  0  0  0  0  0
  -49.9954   -3.2781  -18.9487 C   0  0  0  0  0  0  0  0  0  0  0  0
  -48.5466   -2.8234  -18.9029 C   0  0  0  0  0  0  0  0  0  0  0  0
  -50.7585   -2.5869  -20.0694 C   0  0  0  0  0  0  0  0  0  0  0  0
  -55.0430    1.7183  -21.7727 N   0  0  0  0  0  0  0  0  0  0  0  0
  -54.5584    0.9944  -24.0195 N   0  0  0  0  0  0  0  0  0  0  0  0
  -52.7397   -0.4333  -24.4550 N   0  0  0  0  0  0  0  0  0  0  0  0
  -47.8547   -3.4997  -17.7544 N   0  3  0  0  0  0  0  0  0  0  0  0
  -45.7291   -4.8793  -16.4800 O   0  0  0  0  0  0  0  0  0  0  0  0
  -52.3452    0.2935  -18.1164 O   0  0  0  0  0  0  0  0  0  0  0  0
  -50.7376   -1.1843  -19.8431 O   0  0  0  0  0  0  0  0  0  0  0  0
  -51.5578    0.4137  -29.7948 F   0  0  0  0  0  0  0  0  0  0  0  0
  -51.6168   -2.4495  -29.0280 Cl  0  0  0  0  0  0  0  0  0  0  0  0
  -52.5582    1.9305  -25.6705 H   0  0  0  0  0  0  0  0  0  0  0  0
  -52.0307    2.2956  -28.0572 H   0  0  0  0  0  0  0  0  0  0  0  0
  -51.4508   -1.0548  -22.3412 H   0  0  0  0  0  0  0  0  0  0  0  0
  -54.3053    1.5722  -19.2603 H   0  0  0  0  0  0  0  0  0  0  0  0
  -52.2533   -2.3223  -26.2510 H   0  0  0  0  0  0  0  0  0  0  0  0
  -56.1116    2.2430  -23.4671 H   0  0  0  0  0  0  0  0  0  0  0  0
  -46.8372   -1.7536  -17.1153 H   0  0  0  0  0  0  0  0  0  0  0  0
  -45.9123   -2.8212  -18.2266 H   0  0  0  0  0  0  0  0  0  0  0  0
  -46.9264   -5.0067  -18.9035 H   0  0  0  0  0  0  0  0  0  0  0  0
  -48.5463   -5.4394  -18.2560 H   0  0  0  0  0  0  0  0  0  0  0  0
  -45.0266   -3.0498  -15.8968 H   0  0  0  0  0  0  0  0  0  0  0  0
  -46.6347   -3.4476  -15.2838 H   0  0  0  0  0  0  0  0  0  0  0  0
  -47.6120   -5.5574  -15.9367 H   0  0  0  0  0  0  0  0  0  0  0  0
  -46.6778   -6.6139  -17.0008 H   0  0  0  0  0  0  0  0  0  0  0  0
  -51.3459    1.2172  -16.5615 H   0  0  0  0  0  0  0  0  0  0  0  0
  -51.8830    2.2946  -17.8877 H   0  0  0  0  0  0  0  0  0  0  0  0
  -50.4960    1.1999  -18.1288 H   0  0  0  0  0  0  0  0  0  0  0  0
  -50.4925   -3.0744  -17.9916 H   0  0  0  0  0  0  0  0  0  0  0  0
  -50.0528   -4.3652  -19.0873 H   0  0  0  0  0  0  0  0  0  0  0  0
  -48.4602   -1.7458  -18.7355 H   0  0  0  0  0  0  0  0  0  0  0  0
  -48.0012   -3.1006  -19.8098 H   0  0  0  0  0  0  0  0  0  0  0  0
  -51.8009   -2.9200  -20.0953 H   0  0  0  0  0  0  0  0  0  0  0  0
  -50.2952   -2.7898  -21.0402 H   0  0  0  0  0  0  0  0  0  0  0  0
  -52.3272   -1.2564  -24.0648 H   0  0  0  0  0  0  0  0  0  0  0  0
  -48.4797   -3.4513  -16.9753 H   0  0  0  0  0  0  0  0  0  0  0  0
  1 32  1  0  0  0  0
  1  2  1  0  0  0  0
  1  9  2  0  0  0  0
  2 33  1  0  0  0  0
  2 12  2  0  0  0  0
  3 34  1  0  0  0  0
  3  7  1  0  0  0  0
  3 10  2  0  0  0  0
  4 35  1  0  0  0  0
  4  8  1  0  0  0  0
  4 11  2  0  0  0  0
  5 36  1  0  0  0  0
  5  9  1  0  0  0  0
  5 13  2  0  0  0  0
  6 37  1  0  0  0  0
  6 23  2  0  0  0  0
  6 24  1  0  0  0  0
  7  8  2  0  0  0  0
  7 14  1  0  0  0  0
  8 23  1  0  0  0  0
  9 25  1  0  0  0  0
 10 11  1  0  0  0  0
 10 29  1  0  0  0  0
 11 28  1  0  0  0  0
 12 13  1  0  0  0  0
 12 30  1  0  0  0  0
 13 31  1  0  0  0  0
 14 24  2  0  0  0  0
 14 25  1  0  0  0  0
 15 38  1  0  0  0  0
 15 39  1  0  0  0  0
 15 17  1  0  0  0  0
 15 26  1  0  0  0  0
 16 40  1  0  0  0  0
 16 41  1  0  0  0  0
 16 18  1  0  0  0  0
 16 26  1  0  0  0  0
 17 42  1  0  0  0  0
 17 43  1  0  0  0  0
 17 27  1  0  0  0  0
 18 44  1  0  0  0  0
 18 45  1  0  0  0  0
 18 27  1  0  0  0  0
 19 46  1  0  0  0  0
 19 47  1  0  0  0  0
 19 48  1  0  0  0  0
 19 28  1  0  0  0  0
 20 49  1  0  0  0  0
 20 50  1  0  0  0  0
 20 21  1  0  0  0  0
 20 22  1  0  0  0  0
 21 51  1  0  0  0  0
 21 52  1  0  0  0  0
 21 26  1  0  0  0  0
 22 53  1  0  0  0  0
 22 54  1  0  0  0  0
 22 29  1  0  0  0  0
 25 55  1  0  0  0  0
 26 56  1  0  0  0  0
M  CHG  1  26   1
M  END
> <Chemgauss4>
-9.849774

> <bio:pdb:part:site>
1

> <bio:pdb:part:order>
1

> <bio:pdb:ligand>
true

$$$$
