LIG
  -OEChem-09082123473D

 67 70  0     0  0  0  0  0  0999 V2000
   -2.4390   15.8230  -52.6150 C   0  0  0  0  0  0  0  0  0  0  0  0
   -0.7230   17.7490  -43.8250 O   0  0  0  0  0  0  0  0  0  0  0  0
   -0.2760   10.9670  -54.9260 C   0  0  0  0  0  0  0  0  0  0  0  0
   -2.8950   14.2390  -44.0700 N   0  0  0  0  0  0  0  0  0  0  0  0
   -3.2890   18.8070  -42.4990 Cl  0  0  0  0  0  0  0  0  0  0  0  0
   -5.8900   16.3750  -46.8020 Cl  0  0  0  0  0  0  0  0  0  0  0  0
   -2.5320   13.8910  -45.0810 C   0  0  0  0  0  0  0  0  0  0  0  0
   -1.3020   12.1440  -46.5160 C   0  0  0  0  0  0  0  0  0  0  0  0
   -4.4780   17.5620  -44.6880 C   0  0  0  0  0  0  0  0  0  0  0  0
   -1.8260   16.6460  -45.7600 C   0  0  0  0  0  0  0  0  0  0  0  0
   -0.5380   11.8080  -50.3050 C   0  0  0  0  0  0  0  0  0  0  0  0
   -2.0290   14.4420  -50.2560 C   0  0  0  0  0  0  0  0  0  0  0  0
    0.7430   10.3250  -53.9950 C   0  0  0  0  0  0  0  0  0  0  0  0
    0.7360   11.0740  -52.6630 C   0  0  0  0  0  0  0  0  0  0  0  0
   -0.7980    7.5090  -59.0390 C   0  0  0  0  0  0  0  0  0  0  0  0
   -1.3080   10.3190  -57.2360 C   0  0  0  0  0  0  0  0  0  0  0  0
    0.3100    8.9150  -56.1780 C   0  0  0  0  0  0  0  0  0  0  0  0
   -0.7130    9.9490  -58.6050 C   0  0  0  0  0  0  0  0  0  0  0  0
    0.9210    8.5590  -57.4940 C   0  0  0  0  0  0  0  0  0  0  0  0
   -0.8210   11.6400  -47.7690 N   0  0  0  0  0  0  0  0  0  0  0  0
   -3.0370   15.5280  -47.7040 N   0  0  0  0  0  0  0  0  0  0  0  0
   -1.7680   14.6040  -52.6880 O   0  0  0  0  0  0  0  0  0  0  0  0
   -0.2860   12.0260  -52.7280 O   0  0  0  0  0  0  0  0  0  0  0  0
   -1.8860   17.4360  -44.4920 C   0  0  0  0  0  0  0  0  0  0  0  0
   -3.2170   17.8930  -43.9630 C   0  0  0  0  0  0  0  0  0  0  0  0
   -4.4280   16.7700  -45.9530 C   0  0  0  0  0  0  0  0  0  0  0  0
   -2.0470   13.4380  -46.4190 C   0  0  0  0  0  0  0  0  0  0  0  0
   -3.0980   16.3140  -46.4880 C   0  0  0  0  0  0  0  0  0  0  0  0
   -1.5230   13.8770  -51.5450 C   0  0  0  0  0  0  0  0  0  0  0  0
   -0.7800   12.5830  -51.5560 C   0  0  0  0  0  0  0  0  0  0  0  0
   -2.3230   14.2440  -47.6770 C   0  0  0  0  0  0  0  0  0  0  0  0
   -1.0450   12.3590  -48.9920 C   0  0  0  0  0  0  0  0  0  0  0  0
   -1.7920   13.6770  -48.9890 C   0  0  0  0  0  0  0  0  0  0  0  0
   -0.2430   10.2440  -56.2370 N   0  3  0  0  0  0  0  0  0  0  0  0
   -0.0790    8.6600  -58.5140 N   0  3  0  0  0  0  0  0  0  0  0  0
    0.3580   16.8780  -43.8610 C   0  0  0  0  0  0  0  0  0  0  0  0
   -2.5380   16.2487  -53.6245 H   0  0  0  0  0  0  0  0  0  0  0  0
   -3.4387   15.6659  -52.1838 H   0  0  0  0  0  0  0  0  0  0  0  0
   -1.8702   16.5170  -51.9787 H   0  0  0  0  0  0  0  0  0  0  0  0
   -1.2810   10.8908  -54.4854 H   0  0  0  0  0  0  0  0  0  0  0  0
   -0.0225   12.0263  -55.0799 H   0  0  0  0  0  0  0  0  0  0  0  0
   -1.1215   11.5736  -45.6168 H   0  0  0  0  0  0  0  0  0  0  0  0
   -5.4281   17.8955  -44.2976 H   0  0  0  0  0  0  0  0  0  0  0  0
   -0.8745   16.3161  -46.1502 H   0  0  0  0  0  0  0  0  0  0  0  0
   -0.0085   10.8673  -50.3368 H   0  0  0  0  0  0  0  0  0  0  0  0
   -2.5559   15.3846  -50.2384 H   0  0  0  0  0  0  0  0  0  0  0  0
    0.4775    9.2708  -53.8274 H   0  0  0  0  0  0  0  0  0  0  0  0
    1.7443   10.3836  -54.4465 H   0  0  0  0  0  0  0  0  0  0  0  0
    0.5454   10.3725  -51.8374 H   0  0  0  0  0  0  0  0  0  0  0  0
    1.7045   11.5712  -52.5054 H   0  0  0  0  0  0  0  0  0  0  0  0
   -0.1914    6.6021  -58.8992 H   0  0  0  0  0  0  0  0  0  0  0  0
   -1.7525    7.3977  -58.5036 H   0  0  0  0  0  0  0  0  0  0  0  0
   -0.9941    7.6572  -60.1112 H   0  0  0  0  0  0  0  0  0  0  0  0
   -1.7140   11.3407  -57.2708 H   0  0  0  0  0  0  0  0  0  0  0  0
   -2.1114    9.6138  -56.9768 H   0  0  0  0  0  0  0  0  0  0  0  0
   -0.4895    8.1976  -55.9412 H   0  0  0  0  0  0  0  0  0  0  0  0
    1.0817    8.8756  -55.3951 H   0  0  0  0  0  0  0  0  0  0  0  0
   -1.5152    9.9119  -59.3567 H   0  0  0  0  0  0  0  0  0  0  0  0
    0.0305   10.7045  -58.8991 H   0  0  0  0  0  0  0  0  0  0  0  0
    1.7465    9.2511  -57.7168 H   0  0  0  0  0  0  0  0  0  0  0  0
    1.3061    7.5293  -57.4555 H   0  0  0  0  0  0  0  0  0  0  0  0
   -3.8368   15.5765  -48.3023 H   0  0  0  0  0  0  0  0  0  0  0  0
    0.4907   10.7381  -56.7034 H   0  0  0  0  0  0  0  0  0  0  0  0
    0.5449    8.7757  -59.2869 H   0  0  0  0  0  0  0  0  0  0  0  0
    1.1879   17.2983  -43.2739 H   0  0  0  0  0  0  0  0  0  0  0  0
    0.0617   15.9082  -43.4347 H   0  0  0  0  0  0  0  0  0  0  0  0
    0.6807   16.7372  -44.9031 H   0  0  0  0  0  0  0  0  0  0  0  0
  1 22  1  0  0  0  0
  1 37  1  0  0  0  0
  1 38  1  0  0  0  0
  1 39  1  0  0  0  0
  2 24  1  0  0  0  0
  2 36  1  0  0  0  0
  3 13  1  0  0  0  0
  3 34  1  0  0  0  0
  3 40  1  0  0  0  0
  3 41  1  0  0  0  0
  4  7  3  0  0  0  0
  5 25  1  0  0  0  0
  6 26  1  0  0  0  0
  7 27  1  0  0  0  0
  8 20  2  0  0  0  0
  8 27  1  0  0  0  0
  8 42  1  0  0  0  0
  9 25  2  0  0  0  0
  9 26  1  0  0  0  0
  9 43  1  0  0  0  0
 10 24  2  0  0  0  0
 10 28  1  0  0  0  0
 10 44  1  0  0  0  0
 11 30  2  0  0  0  0
 11 32  1  0  0  0  0
 11 45  1  0  0  0  0
 12 29  2  0  0  0  0
 12 33  1  0  0  0  0
 12 46  1  0  0  0  0
 13 14  1  0  0  0  0
 13 47  1  0  0  0  0
 13 48  1  0  0  0  0
 14 23  1  0  0  0  0
 14 49  1  0  0  0  0
 14 50  1  0  0  0  0
 15 35  1  0  0  0  0
 15 51  1  0  0  0  0
 15 52  1  0  0  0  0
 15 53  1  0  0  0  0
 16 18  1  0  0  0  0
 16 34  1  0  0  0  0
 16 54  1  0  0  0  0
 16 55  1  0  0  0  0
 17 19  1  0  0  0  0
 17 34  1  0  0  0  0
 17 56  1  0  0  0  0
 17 57  1  0  0  0  0
 18 35  1  0  0  0  0
 18 58  1  0  0  0  0
 18 59  1  0  0  0  0
 19 35  1  0  0  0  0
 19 60  1  0  0  0  0
 19 61  1  0  0  0  0
 20 32  1  0  0  0  0
 21 28  1  0  0  0  0
 21 31  1  0  0  0  0
 21 62  1  0  0  0  0
 22 29  1  0  0  0  0
 23 30  1  0  0  0  0
 24 25  1  0  0  0  0
 26 28  2  0  0  0  0
 27 31  2  0  0  0  0
 29 30  1  0  0  0  0
 31 33  1  0  0  0  0
 32 33  2  0  0  0  0
 34 63  1  0  0  0  0
 35 64  1  0  0  0  0
 36 65  1  0  0  0  0
 36 66  1  0  0  0  0
 36 67  1  0  0  0  0
M  CHG  2  34   1  35   1
M  END
> <bio:pdb:part:site>
1

> <bio:pdb:part:order>
1

> <bio:pdb:ligand>
true

$$$$
