LIG
  -OEChem-09082123573D

 52 54  0     0  0  0  0  0  0999 V2000
   28.2874   14.6553   -4.0969 C   0  0  0  0  0  0  0  0  0  0  0  0
   27.2597   14.4318   -3.5175 C   0  0  0  0  0  0  0  0  0  0  0  0
   23.8108   14.8446   -2.1790 C   0  0  0  0  0  0  0  0  0  0  0  0
   25.0050   15.1041   -2.8515 C   0  0  0  0  0  0  0  0  0  0  0  0
   23.6482   13.6465   -1.4834 C   0  0  0  0  0  0  0  0  0  0  0  0
   25.8739   12.9673   -2.1329 C   0  0  0  0  0  0  0  0  0  0  0  0
   23.4213    8.8939   -0.4054 C   0  0  0  0  0  0  0  0  0  0  0  0
   25.1919    6.7864   -0.0314 C   0  0  0  0  0  0  0  0  0  0  0  0
   27.4585    9.5439   -0.3700 C   0  0  0  0  0  0  0  0  0  0  0  0
   26.0365   14.1654   -2.8284 C   0  0  0  0  0  0  0  0  0  0  0  0
   24.8082    9.1228   -0.3940 C   0  0  0  0  0  0  0  0  0  0  0  0
   25.7137    8.0659   -0.2059 C   0  0  0  0  0  0  0  0  0  0  0  0
   24.6797   12.7079   -1.4604 C   0  0  0  0  0  0  0  0  0  0  0  0
   22.9275    7.6051   -0.2288 C   0  0  0  0  0  0  0  0  0  0  0  0
   23.8140    6.5505   -0.0415 C   0  0  0  0  0  0  0  0  0  0  0  0
   25.3669   10.3863   -0.5650 C   0  0  0  0  0  0  0  0  0  0  0  0
   17.1883    8.1111    1.3999 C   0  0  0  0  0  0  0  0  0  0  0  0
   21.2659    4.6913    1.7345 C   0  0  0  0  0  0  0  0  0  0  0  0
   20.8083    8.0711    0.7448 C   0  0  0  0  0  0  0  0  0  0  0  0
   24.1472    4.4071    0.9334 C   0  0  0  0  0  0  0  0  0  0  0  0
   19.3451    7.7225    0.5514 C   0  0  0  0  0  0  0  0  0  0  0  0
   23.2389    3.4181    1.6383 C   0  0  0  0  0  0  0  0  0  0  0  0
   27.0420    8.2735   -0.1935 N   0  0  0  0  0  0  0  0  0  0  0  0
   26.6911   10.6295   -0.5578 N   0  0  0  0  0  0  0  0  0  0  0  0
   24.5155   11.5023   -0.7602 N   0  0  0  0  0  0  0  0  0  0  0  0
   21.5833    7.3905   -0.2409 O   0  0  0  0  0  0  0  0  0  0  0  0
   23.3527    5.2805    0.1336 O   0  0  0  0  0  0  0  0  0  0  0  0
   18.5747    8.3850    1.5468 O   0  0  0  0  0  0  0  0  0  0  0  0
   22.3392    4.1314    2.4781 O   0  0  0  0  0  0  0  0  0  0  0  0
   29.1989   14.8531   -4.6108 H   0  0  0  0  0  0  0  0  0  0  0  0
   23.0076   15.5754   -2.1969 H   0  0  0  0  0  0  0  0  0  0  0  0
   25.1167   16.0426   -3.3893 H   0  0  0  0  0  0  0  0  0  0  0  0
   22.7134   13.4547   -0.9628 H   0  0  0  0  0  0  0  0  0  0  0  0
   26.6762   12.2321   -2.1122 H   0  0  0  0  0  0  0  0  0  0  0  0
   22.7135    9.7066   -0.5504 H   0  0  0  0  0  0  0  0  0  0  0  0
   25.8705    5.9477    0.1166 H   0  0  0  0  0  0  0  0  0  0  0  0
   28.5297    9.7044   -0.3590 H   0  0  0  0  0  0  0  0  0  0  0  0
   16.6283    8.6344    2.1788 H   0  0  0  0  0  0  0  0  0  0  0  0
   17.0188    7.0341    1.4756 H   0  0  0  0  0  0  0  0  0  0  0  0
   16.8587    8.4619    0.4191 H   0  0  0  0  0  0  0  0  0  0  0  0
   20.5964    5.2304    2.4091 H   0  0  0  0  0  0  0  0  0  0  0  0
   20.7207    3.8939    1.2232 H   0  0  0  0  0  0  0  0  0  0  0  0
   21.6705    5.3859    0.9945 H   0  0  0  0  0  0  0  0  0  0  0  0
   21.1613    7.7576    1.7320 H   0  0  0  0  0  0  0  0  0  0  0  0
   20.9652    9.1466    0.6214 H   0  0  0  0  0  0  0  0  0  0  0  0
   24.8554    3.8931    0.2763 H   0  0  0  0  0  0  0  0  0  0  0  0
   24.6934    5.0123    1.6627 H   0  0  0  0  0  0  0  0  0  0  0  0
   19.1792    6.6454    0.6527 H   0  0  0  0  0  0  0  0  0  0  0  0
   18.9981    8.0581   -0.4303 H   0  0  0  0  0  0  0  0  0  0  0  0
   23.8153    2.7292    2.2636 H   0  0  0  0  0  0  0  0  0  0  0  0
   22.6516    2.8513    0.9100 H   0  0  0  0  0  0  0  0  0  0  0  0
   23.6278   11.4053   -0.3100 H   0  0  0  0  0  0  0  0  0  0  0  0
  1 30  1  0  0  0  0
  1  2  3  0  0  0  0
  2 10  1  0  0  0  0
  3 31  1  0  0  0  0
  3  4  2  0  0  0  0
  3  5  1  0  0  0  0
  4 32  1  0  0  0  0
  4 10  1  0  0  0  0
  5 33  1  0  0  0  0
  5 13  2  0  0  0  0
  6 34  1  0  0  0  0
  6 10  2  0  0  0  0
  6 13  1  0  0  0  0
  7 35  1  0  0  0  0
  7 11  1  0  0  0  0
  7 14  2  0  0  0  0
  8 36  1  0  0  0  0
  8 12  1  0  0  0  0
  8 15  2  0  0  0  0
  9 37  1  0  0  0  0
  9 23  2  0  0  0  0
  9 24  1  0  0  0  0
 11 12  2  0  0  0  0
 11 16  1  0  0  0  0
 12 23  1  0  0  0  0
 13 25  1  0  0  0  0
 14 15  1  0  0  0  0
 14 26  1  0  0  0  0
 15 27  1  0  0  0  0
 16 24  2  0  0  0  0
 16 25  1  0  0  0  0
 17 38  1  0  0  0  0
 17 39  1  0  0  0  0
 17 40  1  0  0  0  0
 17 28  1  0  0  0  0
 18 41  1  0  0  0  0
 18 42  1  0  0  0  0
 18 43  1  0  0  0  0
 18 29  1  0  0  0  0
 19 44  1  0  0  0  0
 19 45  1  0  0  0  0
 19 21  1  0  0  0  0
 19 26  1  0  0  0  0
 20 46  1  0  0  0  0
 20 47  1  0  0  0  0
 20 22  1  0  0  0  0
 20 27  1  0  0  0  0
 21 48  1  0  0  0  0
 21 49  1  0  0  0  0
 21 28  1  0  0  0  0
 22 50  1  0  0  0  0
 22 51  1  0  0  0  0
 22 29  1  0  0  0  0
 25 52  1  0  0  0  0
M  END
> <Chemgauss4>
-7.116072

> <bio:pdb:part:site>
1

> <bio:pdb:part:order>
1

> <bio:pdb:ligand>
true

$$$$
