LIG
  -OEChem-09082123513D

 68 72  0     0  0  0  0  0  0999 V2000
   18.5745   -9.2155   13.1550 C   0  0  0  0  0  0  0  0  0  0  0  0
   19.0018   -8.8969   12.0783 C   0  0  0  0  0  0  0  0  0  0  0  0
   17.0443  -10.2940   16.9380 C   0  0  0  0  0  0  0  0  0  0  0  0
   17.9567  -11.1328   16.2981 C   0  0  0  0  0  0  0  0  0  0  0  0
   14.5240   -6.6480   21.5017 C   0  0  0  0  0  0  0  0  0  0  0  0
   15.3378   -7.3269   20.5948 C   0  0  0  0  0  0  0  0  0  0  0  0
   17.1530   -8.7564   15.0775 C   0  0  0  0  0  0  0  0  0  0  0  0
   13.5682   -7.2528   18.9515 C   0  0  0  0  0  0  0  0  0  0  0  0
   20.7743   -8.0642   10.5340 C   0  0  0  0  0  0  0  0  0  0  0  0
   18.0655   -9.5952   14.4376 C   0  0  0  0  0  0  0  0  0  0  0  0
   19.5106   -8.5178   10.7963 C   0  0  0  0  0  0  0  0  0  0  0  0
   16.6424   -9.1058   16.3277 C   0  0  0  0  0  0  0  0  0  0  0  0
   18.4673  -10.7834   15.0479 C   0  0  0  0  0  0  0  0  0  0  0  0
   13.2323   -6.2715   21.1336 C   0  0  0  0  0  0  0  0  0  0  0  0
   12.7545   -6.5739   19.8585 C   0  0  0  0  0  0  0  0  0  0  0  0
   14.8599   -7.6292   19.3197 C   0  0  0  0  0  0  0  0  0  0  0  0
   19.6595   -8.1047    8.6204 C   0  0  0  0  0  0  0  0  0  0  0  0
   19.2331   -8.0067    7.2159 C   0  0  0  0  0  0  0  0  0  0  0  0
   17.9748   -8.3723    6.9679 C   0  0  0  0  0  0  0  0  0  0  0  0
   17.1847   -8.8257    8.1441 C   0  0  0  0  0  0  0  0  0  0  0  0
   15.6785   -8.2213   17.0046 C   0  0  0  0  0  0  0  0  0  0  0  0
   12.2851   -4.7577   24.4035 C   0  0  0  0  0  0  0  0  0  0  0  0
   13.8954   -3.8232   22.8605 C   0  0  0  0  0  0  0  0  0  0  0  0
   13.0923   -4.2644   25.5997 C   0  0  0  0  0  0  0  0  0  0  0  0
   14.7494   -3.3028   24.0118 C   0  0  0  0  0  0  0  0  0  0  0  0
   19.4439  -11.7064   14.3923 C   0  0  0  0  0  0  0  0  0  0  0  0
   14.6305   -2.4495   26.3544 C   0  0  0  0  0  0  0  0  0  0  0  0
   12.3749   -5.5423   22.1272 C   0  0  0  0  0  0  0  0  0  0  0  0
   11.3758   -6.1790   19.4416 C   0  0  0  0  0  0  0  0  0  0  0  0
   17.5146   -8.9293    9.3965 N   0  0  0  0  0  0  0  0  0  0  0  0
   18.8430   -8.5324    9.5939 N   0  0  0  0  0  0  0  0  0  0  0  0
   20.8387   -7.8166    9.1822 N   0  3  0  0  0  0  0  0  0  0  0  0
   13.1561   -5.0303   23.2526 N   0  0  0  0  0  0  0  0  0  0  0  0
   15.6742   -8.3065   18.4116 N   0  0  0  0  0  0  0  0  0  0  0  0
   13.8631   -3.0311   25.2013 N   0  3  0  0  0  0  0  0  0  0  0  0
   14.9223   -7.4982   16.3595 O   0  0  0  0  0  0  0  0  0  0  0  0
   11.0656   -6.5477   18.1643 F   0  0  0  0  0  0  0  0  0  0  0  0
   10.3947   -6.7231   20.2193 F   0  0  0  0  0  0  0  0  0  0  0  0
   11.1801   -4.8299   19.4928 F   0  0  0  0  0  0  0  0  0  0  0  0
   16.6523  -10.5773   17.9116 H   0  0  0  0  0  0  0  0  0  0  0  0
   18.2630  -12.0562   16.7826 H   0  0  0  0  0  0  0  0  0  0  0  0
   14.9051   -6.4178   22.4933 H   0  0  0  0  0  0  0  0  0  0  0  0
   16.3421   -7.6160   20.8934 H   0  0  0  0  0  0  0  0  0  0  0  0
   16.8353   -7.8281   14.6060 H   0  0  0  0  0  0  0  0  0  0  0  0
   13.1947   -7.4882   17.9572 H   0  0  0  0  0  0  0  0  0  0  0  0
   21.6587   -7.8742   11.1099 H   0  0  0  0  0  0  0  0  0  0  0  0
   19.9110   -7.6581    6.4485 H   0  0  0  0  0  0  0  0  0  0  0  0
   17.5228   -8.3535    5.9864 H   0  0  0  0  0  0  0  0  0  0  0  0
   16.1740   -9.1111    7.8923 H   0  0  0  0  0  0  0  0  0  0  0  0
   11.7688   -5.6785   24.7010 H   0  0  0  0  0  0  0  0  0  0  0  0
   11.5113   -4.0214   24.1481 H   0  0  0  0  0  0  0  0  0  0  0  0
   13.2104   -3.0357   22.5188 H   0  0  0  0  0  0  0  0  0  0  0  0
   14.5629   -4.0568   22.0221 H   0  0  0  0  0  0  0  0  0  0  0  0
   12.4297   -3.9842   26.4251 H   0  0  0  0  0  0  0  0  0  0  0  0
   13.8135   -5.0139   25.9460 H   0  0  0  0  0  0  0  0  0  0  0  0
   15.5109   -4.0289   24.3195 H   0  0  0  0  0  0  0  0  0  0  0  0
   15.2316   -2.3580   23.7400 H   0  0  0  0  0  0  0  0  0  0  0  0
   18.9150  -12.4371   13.7705 H   0  0  0  0  0  0  0  0  0  0  0  0
   20.1479  -11.1521   13.7604 H   0  0  0  0  0  0  0  0  0  0  0  0
   20.0392  -12.2459   15.1385 H   0  0  0  0  0  0  0  0  0  0  0  0
   15.3667   -3.1899   26.6729 H   0  0  0  0  0  0  0  0  0  0  0  0
   15.1173   -1.5368   26.0055 H   0  0  0  0  0  0  0  0  0  0  0  0
   13.9195   -2.2341   27.1542 H   0  0  0  0  0  0  0  0  0  0  0  0
   11.8707   -4.6934   21.6526 H   0  0  0  0  0  0  0  0  0  0  0  0
   11.5966   -6.1985   22.5309 H   0  0  0  0  0  0  0  0  0  0  0  0
   21.6426   -7.4749    8.6953 H   0  0  0  0  0  0  0  0  0  0  0  0
   16.3421   -8.9345   18.8111 H   0  0  0  0  0  0  0  0  0  0  0  0
   13.1959   -2.3392   24.9252 H   0  0  0  0  0  0  0  0  0  0  0  0
  1  2  3  0  0  0  0
  1 10  1  0  0  0  0
  2 11  1  0  0  0  0
  3 40  1  0  0  0  0
  3  4  1  0  0  0  0
  3 12  2  0  0  0  0
  4 41  1  0  0  0  0
  4 13  2  0  0  0  0
  5 42  1  0  0  0  0
  5  6  2  0  0  0  0
  5 14  1  0  0  0  0
  6 43  1  0  0  0  0
  6 16  1  0  0  0  0
  7 44  1  0  0  0  0
  7 10  2  0  0  0  0
  7 12  1  0  0  0  0
  8 45  1  0  0  0  0
  8 15  1  0  0  0  0
  8 16  2  0  0  0  0
  9 46  1  0  0  0  0
  9 11  2  0  0  0  0
  9 32  1  0  0  0  0
 10 13  1  0  0  0  0
 11 31  1  0  0  0  0
 12 21  1  0  0  0  0
 13 26  1  0  0  0  0
 14 15  2  0  0  0  0
 14 28  1  0  0  0  0
 15 29  1  0  0  0  0
 16 34  1  0  0  0  0
 17 18  1  0  0  0  0
 17 31  1  0  0  0  0
 17 32  2  0  0  0  0
 18 47  1  0  0  0  0
 18 19  2  0  0  0  0
 19 48  1  0  0  0  0
 19 20  1  0  0  0  0
 20 49  1  0  0  0  0
 20 30  2  0  0  0  0
 21 34  1  0  0  0  0
 21 36  2  0  0  0  0
 22 50  1  0  0  0  0
 22 51  1  0  0  0  0
 22 24  1  0  0  0  0
 22 33  1  0  0  0  0
 23 52  1  0  0  0  0
 23 53  1  0  0  0  0
 23 25  1  0  0  0  0
 23 33  1  0  0  0  0
 24 54  1  0  0  0  0
 24 55  1  0  0  0  0
 24 35  1  0  0  0  0
 25 56  1  0  0  0  0
 25 57  1  0  0  0  0
 25 35  1  0  0  0  0
 26 58  1  0  0  0  0
 26 59  1  0  0  0  0
 26 60  1  0  0  0  0
 27 61  1  0  0  0  0
 27 62  1  0  0  0  0
 27 63  1  0  0  0  0
 27 35  1  0  0  0  0
 28 64  1  0  0  0  0
 28 65  1  0  0  0  0
 28 33  1  0  0  0  0
 29 37  1  0  0  0  0
 29 38  1  0  0  0  0
 29 39  1  0  0  0  0
 30 31  1  0  0  0  0
 32 66  1  0  0  0  0
 34 67  1  0  0  0  0
 35 68  1  0  0  0  0
M  CHG  2  32   1  35   1
M  END
> <Chemgauss4>
-16.620771

> <bio:pdb:part:site>
1

> <bio:pdb:part:order>
1

> <bio:pdb:ligand>
true

$$$$
