LIG
  -OEChem-09082123543D

 61 65  0     0  0  0  0  0  0999 V2000
   20.8950   39.1740   14.0370 O   0  0  0  0  0  0  0  0  0  0  0  0
   20.1830   39.6480   14.9410 C   0  0  0  0  0  0  0  0  0  0  0  0
   20.3160   40.8830   15.5010 N   0  0  0  0  0  0  0  0  0  0  0  0
   21.3540   41.7820   15.2460 C   0  0  0  0  0  0  0  0  0  0  0  0
   21.6540   42.7880   16.1990 C   0  0  0  0  0  0  0  0  0  0  0  0
   22.7120   43.7270   15.9890 C   0  0  0  0  0  0  0  0  0  0  0  0
   23.0470   44.7120   16.9470 N   0  0  0  0  0  0  0  0  0  0  0  0
   22.1980   45.2940   17.8830 C   0  0  0  0  0  0  0  0  0  0  0  0
   22.9290   46.1650   18.6540 C   0  0  0  0  0  0  0  0  0  0  0  0
   22.3830   47.0240   19.8130 C   0  0  0  0  0  0  0  0  0  0  0  0
   24.2480   46.1470   18.2270 N   0  0  0  0  0  0  0  0  0  0  0  0
   24.2680   45.2600   17.2010 C   0  0  0  0  0  0  0  0  0  0  0  0
   23.4390   43.6070   14.7930 C   0  0  0  0  0  0  0  0  0  0  0  0
   22.0690   41.7320   14.0430 C   0  0  0  0  0  0  0  0  0  0  0  0
   23.1260   42.6300   13.8400 C   0  0  0  0  0  0  0  0  0  0  0  0
   23.8930   42.5380   12.5510 C   0  0  0  0  0  0  0  0  0  0  0  0
   23.0060   42.5060   11.4960 F   0  0  0  0  0  0  0  0  0  0  0  0
   24.6870   43.6420   12.3790 F   0  0  0  0  0  0  0  0  0  0  0  0
   24.6090   41.3780   12.4940 F   0  0  0  0  0  0  0  0  0  0  0  0
   18.9470   38.9060   15.3820 C   0  0  0  0  0  0  0  0  0  0  0  0
   18.1330   39.2630   16.4830 C   0  0  0  0  0  0  0  0  0  0  0  0
   16.9450   38.5500   16.7910 C   0  0  0  0  0  0  0  0  0  0  0  0
   16.5060   37.4830   16.0020 C   0  0  0  0  0  0  0  0  0  0  0  0
   15.2210   36.7430   16.3700 C   0  0  0  0  0  0  0  0  0  0  0  0
   17.2440   37.1830   14.8350 C   0  0  0  0  0  0  0  0  0  0  0  0
   18.4460   37.8720   14.5750 C   0  0  0  0  0  0  0  0  0  0  0  0
   16.9440   35.9990   14.1520 N   0  0  0  0  0  0  0  0  0  0  0  0
   17.6150   34.8810   14.6890 C   0  0  0  0  0  0  0  0  0  0  0  0
   18.3800   34.7470   15.7780 N   0  0  0  0  0  0  0  0  0  0  0  0
   18.9340   33.5080   16.0130 C   0  0  0  0  0  0  0  0  0  0  0  0
   18.7440   32.4420   15.1820 C   0  0  0  0  0  0  0  0  0  0  0  0
   17.9620   32.6500   14.0980 C   0  0  0  0  0  0  0  0  0  0  0  0
   17.4250   33.8590   13.8690 N   0  0  0  0  0  0  0  0  0  0  0  0
   17.6090   31.6440   13.0670 C   0  0  0  0  0  0  0  0  0  0  0  0
   17.9220   30.2690   13.2200 C   0  0  0  0  0  0  0  0  0  0  0  0
   17.5580   29.3780   12.1930 C   0  0  0  0  0  0  0  0  0  0  0  0
   16.8920   29.8760   11.0740 C   0  0  0  0  0  0  0  0  0  0  0  0
   16.5730   31.1760   10.9240 N   0  0  0  0  0  0  0  0  0  0  0  0
   16.9210   32.0380   11.8980 C   0  0  0  0  0  0  0  0  0  0  0  0
   19.6108   41.1700   16.1494 H   0  0  0  0  0  0  0  0  0  0  0  0
   21.0695   42.8466   17.1053 H   0  0  0  0  0  0  0  0  0  0  0  0
   21.1416   45.0946   17.9862 H   0  0  0  0  0  0  0  0  0  0  0  0
   21.9612   46.3683   20.5890 H   0  0  0  0  0  0  0  0  0  0  0  0
   23.2003   47.6218   20.2428 H   0  0  0  0  0  0  0  0  0  0  0  0
   21.5981   47.6949   19.4338 H   0  0  0  0  0  0  0  0  0  0  0  0
   25.1595   45.0138   16.6433 H   0  0  0  0  0  0  0  0  0  0  0  0
   24.2587   44.2843   14.6041 H   0  0  0  0  0  0  0  0  0  0  0  0
   21.8095   41.0112   13.2818 H   0  0  0  0  0  0  0  0  0  0  0  0
   18.4226   40.0979   17.1038 H   0  0  0  0  0  0  0  0  0  0  0  0
   16.3663   38.8389   17.6559 H   0  0  0  0  0  0  0  0  0  0  0  0
   14.3761   37.4473   16.3603 H   0  0  0  0  0  0  0  0  0  0  0  0
   15.0380   35.9409   15.6398 H   0  0  0  0  0  0  0  0  0  0  0  0
   15.3237   36.3076   17.3749 H   0  0  0  0  0  0  0  0  0  0  0  0
   19.0157   37.5875   13.7027 H   0  0  0  0  0  0  0  0  0  0  0  0
   16.1452   35.9105   13.5570 H   0  0  0  0  0  0  0  0  0  0  0  0
   19.5454   33.3742   16.8932 H   0  0  0  0  0  0  0  0  0  0  0  0
   19.1952   31.4810   15.3799 H   0  0  0  0  0  0  0  0  0  0  0  0
   18.4285   29.9135   14.1051 H   0  0  0  0  0  0  0  0  0  0  0  0
   17.7907   28.3262   12.2705 H   0  0  0  0  0  0  0  0  0  0  0  0
   16.6186   29.1860   10.2894 H   0  0  0  0  0  0  0  0  0  0  0  0
   16.6619   33.0798   11.7799 H   0  0  0  0  0  0  0  0  0  0  0  0
  1  2  2  0  0  0  0
  2  3  1  0  0  0  0
  2 20  1  0  0  0  0
  3  4  1  0  0  0  0
  3 40  1  0  0  0  0
  4  5  2  0  0  0  0
  4 14  1  0  0  0  0
  5  6  1  0  0  0  0
  5 41  1  0  0  0  0
  6  7  1  0  0  0  0
  6 13  2  0  0  0  0
  7  8  1  0  0  0  0
  7 12  1  0  0  0  0
  8  9  2  0  0  0  0
  8 42  1  0  0  0  0
  9 10  1  0  0  0  0
  9 11  1  0  0  0  0
 10 43  1  0  0  0  0
 10 44  1  0  0  0  0
 10 45  1  0  0  0  0
 11 12  2  0  0  0  0
 12 46  1  0  0  0  0
 13 15  1  0  0  0  0
 13 47  1  0  0  0  0
 14 15  2  0  0  0  0
 14 48  1  0  0  0  0
 15 16  1  0  0  0  0
 16 17  1  0  0  0  0
 16 18  1  0  0  0  0
 16 19  1  0  0  0  0
 20 21  2  0  0  0  0
 20 26  1  0  0  0  0
 21 22  1  0  0  0  0
 21 49  1  0  0  0  0
 22 23  2  0  0  0  0
 22 50  1  0  0  0  0
 23 24  1  0  0  0  0
 23 25  1  0  0  0  0
 24 51  1  0  0  0  0
 24 52  1  0  0  0  0
 24 53  1  0  0  0  0
 25 26  2  0  0  0  0
 25 27  1  0  0  0  0
 26 54  1  0  0  0  0
 27 28  1  0  0  0  0
 27 55  1  0  0  0  0
 28 29  2  0  0  0  0
 28 33  1  0  0  0  0
 29 30  1  0  0  0  0
 30 31  2  0  0  0  0
 30 56  1  0  0  0  0
 31 32  1  0  0  0  0
 31 57  1  0  0  0  0
 32 33  2  0  0  0  0
 32 34  1  0  0  0  0
 34 35  2  0  0  0  0
 34 39  1  0  0  0  0
 35 36  1  0  0  0  0
 35 58  1  0  0  0  0
 36 37  2  0  0  0  0
 36 59  1  0  0  0  0
 37 38  1  0  0  0  0
 37 60  1  0  0  0  0
 38 39  2  0  0  0  0
 39 61  1  0  0  0  0
M  END
> <bio:pdb:part:site>
1

> <bio:pdb:part:order>
1

> <bio:pdb:ligand>
true

$$$$
